/*--------------------------------*- C++ -*----------------------------------*\
| =========                 |                                                 |
| \\      /  F ield         | OpenFOAM: The Open Source CFD Toolbox           |
|  \\    /   O peration     | Version:  2.4.0                                 |
|   \\  /    A nd           | Web:      www.OpenFOAM.org                      |
|    \\/     M anipulation  |                                                 |
\*---------------------------------------------------------------------------*/
FoamFile
{
    version     4.0;
    format      ascii;
    class       dictionary;
    location    "system";
    object      surfRoughGenDict;
}

// Methods: symmetric, synchronous, asymmetric, oneSurface, oneSurfaceDecay;
apply               oneSurface;
patchName           solubleWall;

majSize             256;
minSize             128;
majDir              0;
minDir              1;

seed                513287;
roughness           0.1;
fractalParam       -1;
smoothing           0.01;

